Version 4
SHEET 1 3204 1360
WIRE -1568 -416 -1760 -416
WIRE -1376 -416 -1568 -416
WIRE -640 -400 -704 -400
WIRE -1568 -384 -1568 -416
WIRE -704 -368 -704 -400
WIRE -640 -368 -640 -400
WIRE -1376 -336 -1376 -416
WIRE -1504 -240 -1632 -240
WIRE -912 -240 -960 -240
WIRE -864 -240 -912 -240
WIRE -800 -240 -864 -240
WIRE -704 -240 -704 -288
WIRE -704 -240 -720 -240
WIRE -688 -240 -704 -240
WIRE -688 -224 -688 -240
WIRE -672 -224 -688 -224
WIRE -560 -208 -608 -208
WIRE -512 -208 -560 -208
WIRE -416 -208 -448 -208
WIRE -672 -192 -688 -192
WIRE -2128 -160 -2128 -224
WIRE -1776 -160 -1776 -224
WIRE -912 -160 -960 -160
WIRE -864 -160 -912 -160
WIRE -800 -160 -864 -160
WIRE -704 -160 -720 -160
WIRE -688 -160 -688 -192
WIRE -688 -160 -704 -160
WIRE -1632 -144 -1632 -176
WIRE -416 -96 -416 -128
WIRE -704 -64 -704 -160
WIRE -688 -64 -704 -64
WIRE -560 -64 -560 -208
WIRE -560 -64 -608 -64
WIRE -1632 0 -1632 -64
WIRE -1376 0 -1376 -32
WIRE -1376 0 -1632 0
WIRE -2240 16 -2256 16
WIRE -2128 16 -2128 -80
WIRE -2128 16 -2160 16
WIRE -1888 16 -1904 16
WIRE -1776 16 -1776 -80
WIRE -1776 16 -1808 16
WIRE -1632 48 -1632 0
WIRE -2528 96 -2864 96
WIRE -1536 112 -1648 112
WIRE -1168 112 -1168 -32
WIRE -1168 112 -1424 112
WIRE -2256 128 -2256 16
WIRE -2208 128 -2256 128
WIRE -2128 128 -2128 16
WIRE -1904 128 -1904 16
WIRE -1904 128 -2064 128
WIRE -1856 128 -1904 128
WIRE -1776 128 -1776 16
WIRE -1648 128 -1648 112
WIRE -1648 128 -1712 128
WIRE -2128 192 -2128 128
WIRE -1776 192 -1776 128
WIRE -1088 192 -1088 -32
WIRE -1088 192 -1424 192
WIRE -2864 240 -2864 96
WIRE -2528 240 -2528 96
WIRE -2432 240 -2528 240
WIRE -2256 240 -2256 128
WIRE -2256 240 -2368 240
WIRE -2192 240 -2256 240
WIRE -1904 240 -1904 128
WIRE -1840 240 -1904 240
WIRE -2864 256 -2864 240
WIRE -1536 256 -1536 192
WIRE -1424 256 -1424 192
WIRE -2128 304 -2128 288
WIRE -2016 304 -2128 304
WIRE -1776 304 -1776 288
WIRE -1664 304 -1776 304
WIRE -2128 320 -2128 304
WIRE -1776 320 -1776 304
WIRE -2016 336 -2016 304
WIRE -1664 336 -1664 304
WIRE -2016 432 -2016 400
WIRE -1664 432 -1664 400
WIRE -2016 560 -2016 512
WIRE -1664 560 -1664 512
FLAG -1152 -384 0
FLAG -1232 -384 0
FLAG -1232 -464 -Vcc
IOPIN -1232 -464 In
FLAG -1152 -464 Vcc
IOPIN -1152 -464 In
FLAG -640 -176 Vcc
IOPIN -640 -176 In
FLAG -640 -240 -Vcc
IOPIN -640 -240 In
FLAG -640 -368 0
FLAG -912 -96 0
FLAG -912 -304 0
FLAG -1088 256 0
FLAG -1632 48 0
FLAG -1568 -304 0
FLAG -1760 -416 VCC+5V
IOPIN -1760 -416 In
FLAG -416 -96 0
FLAG -2128 -224 Vcc
IOPIN -2128 -224 In
FLAG -2128 400 0
FLAG -2016 560 0
FLAG -2864 336 0
FLAG -2864 240 Vin
FLAG -1776 -224 Vcc
IOPIN -1776 -224 In
FLAG -1776 400 0
FLAG -1664 560 0
FLAG -1536 256 0
FLAG -1424 256 0
SYMBOL voltage -1632 -160 R0
WINDOW 39 0 0 Left 0
WINDOW 0 48 22 Left 0
WINDOW 3 -103 133 Left 0
SYMATTR InstName V2
SYMATTR Value SINE(0 0.2 13.645Meg)
SYMATTR Value2 AC 1e-6
SYMBOL ne612\\sa612 -1264 -192 R0
SYMATTR InstName X1
SYMBOL cap -1648 -176 M180
WINDOW 0 24 56 Left 2
WINDOW 3 24 8 Left 2
SYMATTR InstName C1
SYMATTR Value 100n
SYMBOL LM\ Opamps\\LM741 -640 -144 M180
SYMATTR InstName U1
SYMBOL voltage -1152 -480 R0
WINDOW 123 0 0 Left 0
WINDOW 39 0 0 Left 0
SYMATTR InstName V4
SYMATTR Value 12v
SYMBOL voltage -1232 -368 R180
WINDOW 0 24 96 Left 2
WINDOW 3 24 16 Left 2
WINDOW 123 0 0 Left 0
WINDOW 39 0 0 Left 0
SYMATTR InstName V5
SYMATTR Value 12v
SYMBOL res -704 -256 R90
WINDOW 0 0 56 VBottom 2
WINDOW 3 32 56 VTop 2
SYMATTR InstName R4
SYMATTR Value 1k
SYMBOL res -704 -176 R90
WINDOW 0 0 56 VBottom 2
WINDOW 3 32 56 VTop 2
SYMATTR InstName R5
SYMATTR Value 1k
SYMBOL res -592 -80 R90
WINDOW 0 0 56 VBottom 2
WINDOW 3 32 56 VTop 2
SYMATTR InstName R6
SYMATTR Value 1k
SYMBOL res -688 -272 R180
WINDOW 0 36 76 Left 2
WINDOW 3 36 40 Left 2
SYMATTR InstName R7
SYMATTR Value 1k
SYMBOL cap -896 -96 R180
WINDOW 0 24 56 Left 2
WINDOW 3 24 8 Left 2
SYMATTR InstName C6
SYMATTR Value 1n
SYMBOL cap -896 -240 R180
WINDOW 0 24 56 Left 2
WINDOW 3 24 8 Left 2
SYMATTR InstName C7
SYMATTR Value 1n
SYMBOL cap -448 -224 R90
WINDOW 0 0 32 VBottom 2
WINDOW 3 32 32 VTop 2
SYMATTR InstName C9
SYMATTR Value 100n
SYMBOL cap -1072 256 R180
WINDOW 0 24 56 Left 2
WINDOW 3 24 8 Left 2
SYMATTR InstName C10
SYMATTR Value 1n
SYMBOL voltage -1568 -400 R0
WINDOW 123 0 0 Left 0
WINDOW 39 0 0 Left 0
SYMATTR InstName V3
SYMATTR Value 5v
SYMBOL res -880 -256 R0
SYMATTR InstName R1
SYMATTR Value 1k5
SYMBOL res -432 -224 R0
SYMATTR InstName R2
SYMATTR Value 50R
SYMBOL cap -2368 224 R90
WINDOW 0 0 32 VBottom 2
WINDOW 3 32 32 VTop 2
SYMATTR InstName C2
SYMATTR Value 100n
SYMBOL npn -2192 192 R0
SYMATTR InstName Q1
SYMATTR Value 2N3904
SYMBOL res -2112 112 R90
WINDOW 0 0 56 VBottom 2
WINDOW 3 32 56 VTop 2
SYMATTR InstName R3
SYMATTR Value 330R
SYMBOL res -2144 -176 R0
SYMATTR InstName R8
SYMATTR Value 500R
SYMBOL cap -2064 112 R90
WINDOW 0 0 32 VBottom 2
WINDOW 3 32 32 VTop 2
SYMATTR InstName C3
SYMATTR Value 100n
SYMBOL res -2144 304 R0
SYMATTR InstName R9
SYMATTR Value 330R
SYMBOL cap -2032 336 R0
SYMATTR InstName C4
SYMATTR Value 6.8µ
SYMBOL res -2032 416 R0
SYMATTR InstName R10
SYMATTR Value 22R
SYMBOL voltage -2864 240 R0
WINDOW 39 24 44 Left 2
WINDOW 3 24 72 Left 2
SYMATTR Value2 AC 10u
SYMATTR SpiceLine Rser=50
SYMATTR InstName V1
SYMATTR Value SINE(0 10u 14.1Meg)
SYMBOL res -2144 0 R90
WINDOW 0 0 56 VBottom 2
WINDOW 3 32 56 VTop 2
SYMATTR InstName R11
SYMATTR Value 100k
SYMBOL npn -1840 192 R0
SYMATTR InstName Q2
SYMATTR Value 2N3904
SYMBOL res -1760 112 R90
WINDOW 0 0 56 VBottom 2
WINDOW 3 32 56 VTop 2
SYMATTR InstName R12
SYMATTR Value 10k
SYMBOL res -1792 -176 R0
SYMATTR InstName R13
SYMATTR Value 1500R
SYMBOL cap -1712 112 R90
WINDOW 0 0 32 VBottom 2
WINDOW 3 32 32 VTop 2
SYMATTR InstName C5
SYMATTR Value 100n
SYMBOL res -1792 304 R0
SYMATTR InstName R14
SYMATTR Value 470r
SYMBOL cap -1680 336 R0
SYMATTR InstName C8
SYMATTR Value 6.8µ
SYMBOL res -1680 416 R0
SYMATTR InstName R15
SYMATTR Value 470r
SYMBOL res -1792 0 R90
WINDOW 0 0 56 VBottom 2
WINDOW 3 32 56 VTop 2
SYMATTR InstName R16
SYMATTR Value 100k
SYMBOL ind2 -1552 96 R0
SYMATTR InstName L1
SYMATTR Value 30µ
SYMATTR Type ind
SYMBOL ind2 -1408 208 R180
WINDOW 0 36 80 Left 2
WINDOW 3 36 40 Left 2
SYMATTR InstName L2
SYMATTR Value 30µ
SYMATTR Type ind
TEXT -1184 -352 Left 0 ;1st Mixer
TEXT -1592 -112 Left 0 ;1st LO
TEXT -2912 528 Left 2 !.tran 0 0.25m 50u
TEXT -1552 88 Left 2 !K1 L1 L2 0.95
TEXT -2912 432 Left 2 ;RF preamp amplifier for NE602 and other series mixers.
TEXT -2912 456 Left 2 ;Output impedance matched for 1000-3000 Ohm input impedance of NE602 ic
TEXT -2912 480 Left 2 ;Input impedance in HF band 35-55 Ohm. Amplification cca 30dB
TEXT -2912 504 Left 2 ;Circuit created by 9A3ICE, 14 Apr, 2020
