Version 4
SHEET 1 3204 1360
WIRE -1376 -416 -1760 -416
WIRE -640 -400 -704 -400
WIRE -704 -368 -704 -400
WIRE -640 -368 -640 -400
WIRE -1376 -336 -1376 -416
WIRE -1504 -240 -1632 -240
WIRE -912 -240 -960 -240
WIRE -864 -240 -912 -240
WIRE -800 -240 -864 -240
WIRE -704 -240 -704 -288
WIRE -704 -240 -720 -240
WIRE -688 -240 -704 -240
WIRE -688 -224 -688 -240
WIRE -672 -224 -688 -224
WIRE -1760 -208 -1760 -416
WIRE -560 -208 -608 -208
WIRE -512 -208 -560 -208
WIRE -416 -208 -448 -208
WIRE -672 -192 -688 -192
WIRE -912 -160 -960 -160
WIRE -864 -160 -912 -160
WIRE -800 -160 -864 -160
WIRE -704 -160 -720 -160
WIRE -688 -160 -688 -192
WIRE -688 -160 -704 -160
WIRE -1632 -144 -1632 -176
WIRE -416 -96 -416 -128
WIRE -704 -64 -704 -160
WIRE -688 -64 -704 -64
WIRE -560 -64 -560 -208
WIRE -560 -64 -608 -64
WIRE -1632 0 -1632 -64
WIRE -1376 0 -1376 -32
WIRE -1376 0 -1632 0
WIRE -1632 48 -1632 0
WIRE -1376 112 -1792 112
WIRE -1168 112 -1168 -32
WIRE -1168 112 -1232 112
WIRE -2096 144 -2240 144
WIRE -1792 144 -1792 112
WIRE -1792 144 -2016 144
WIRE -2240 160 -2240 144
WIRE -1376 192 -1456 192
WIRE -1088 192 -1088 -32
WIRE -1088 192 -1232 192
FLAG -1456 192 0
FLAG -1856 -128 0
FLAG -1936 -128 0
FLAG -1936 -208 -Vcc
IOPIN -1936 -208 In
FLAG -1856 -208 Vcc
IOPIN -1856 -208 In
FLAG -640 -176 Vcc
IOPIN -640 -176 In
FLAG -640 -240 -Vcc
IOPIN -640 -240 In
FLAG -640 -368 0
FLAG -912 -96 0
FLAG -912 -304 0
FLAG -1088 256 0
FLAG -1632 48 0
FLAG -2240 160 0
FLAG -1760 -128 0
FLAG -1760 -416 VCC+5V
IOPIN -1760 -416 In
FLAG -416 -96 0
SYMBOL voltage -1632 -160 R0
WINDOW 39 0 0 Left 0
WINDOW 0 48 22 Left 0
WINDOW 3 -103 133 Left 0
SYMATTR InstName V2
SYMATTR Value SINE(0 0.2 13.645Meg)
SYMATTR Value2 AC 1e-6
SYMBOL ne612\\sa612 -1264 -192 R0
SYMATTR InstName X1
SYMBOL ind2 -1392 96 R0
SYMATTR InstName L1
SYMATTR Value 10µ
SYMATTR Type ind
SYMATTR SpiceLine Rser=0.1
SYMBOL ind2 -1216 208 R180
WINDOW 0 36 80 Left 2
WINDOW 3 36 40 Left 2
SYMATTR InstName L2
SYMATTR Value 900µ
SYMATTR Type ind
SYMBOL cap -1648 -176 M180
WINDOW 0 24 56 Left 2
WINDOW 3 24 8 Left 2
SYMATTR InstName C1
SYMATTR Value 100n
SYMBOL LM\ Opamps\\LM741 -640 -144 M180
SYMATTR InstName U1
SYMBOL voltage -1856 -224 R0
WINDOW 123 0 0 Left 0
WINDOW 39 0 0 Left 0
SYMATTR InstName V4
SYMATTR Value 12v
SYMBOL voltage -1936 -112 R180
WINDOW 0 24 96 Left 2
WINDOW 3 24 16 Left 2
WINDOW 123 0 0 Left 0
WINDOW 39 0 0 Left 0
SYMATTR InstName V5
SYMATTR Value 12v
SYMBOL res -704 -256 R90
WINDOW 0 0 56 VBottom 2
WINDOW 3 32 56 VTop 2
SYMATTR InstName R4
SYMATTR Value 1k
SYMBOL res -704 -176 R90
WINDOW 0 0 56 VBottom 2
WINDOW 3 32 56 VTop 2
SYMATTR InstName R5
SYMATTR Value 1k
SYMBOL res -592 -80 R90
WINDOW 0 0 56 VBottom 2
WINDOW 3 32 56 VTop 2
SYMATTR InstName R6
SYMATTR Value 1k
SYMBOL res -688 -272 R180
WINDOW 0 36 76 Left 2
WINDOW 3 36 40 Left 2
SYMATTR InstName R7
SYMATTR Value 1k
SYMBOL cap -896 -96 R180
WINDOW 0 24 56 Left 2
WINDOW 3 24 8 Left 2
SYMATTR InstName C6
SYMATTR Value 1n
SYMBOL cap -896 -240 R180
WINDOW 0 24 56 Left 2
WINDOW 3 24 8 Left 2
SYMATTR InstName C7
SYMATTR Value 1n
SYMBOL cap -448 -224 R90
WINDOW 0 0 32 VBottom 2
WINDOW 3 32 32 VTop 2
SYMATTR InstName C9
SYMATTR Value 100n
SYMBOL cap -1072 256 R180
WINDOW 0 24 56 Left 2
WINDOW 3 24 8 Left 2
SYMATTR InstName C10
SYMATTR Value 1n
SYMBOL voltage -2000 144 R90
WINDOW 123 24 124 Left 2
WINDOW 39 0 0 Left 0
SYMATTR Value2 AC 50u
SYMATTR InstName V6
SYMATTR Value SINE(0 1u 14.1Meg)
SYMBOL voltage -1760 -224 R0
WINDOW 123 0 0 Left 0
WINDOW 39 0 0 Left 0
SYMATTR InstName V3
SYMATTR Value 5v
SYMBOL res -880 -256 R0
SYMATTR InstName R1
SYMATTR Value 1k5
SYMBOL res -432 -224 R0
SYMATTR InstName R2
SYMATTR Value 50R
TEXT -1184 -352 Left 0 ;1st Mixer
TEXT -1592 -112 Left 0 ;1st LO
TEXT -1376 88 Left 2 !K2 L1 L2 0.95
TEXT -1736 392 Left 2 !.tran 0 0.25m 50u
