Version 4
SHEET 1 3204 1360
WIRE -1568 -416 -1760 -416
WIRE -1376 -416 -1568 -416
WIRE -1568 -384 -1568 -416
WIRE -1376 -336 -1376 -416
WIRE -1504 -240 -1632 -240
WIRE -624 -240 -960 -240
WIRE -624 -224 -624 -240
WIRE -400 -224 -512 -224
WIRE -832 -160 -832 -176
WIRE -832 -160 -960 -160
WIRE -736 -160 -832 -160
WIRE -1632 -144 -1632 -176
WIRE -736 -144 -736 -160
WIRE -624 -144 -736 -144
WIRE -1632 0 -1632 -64
WIRE -1376 0 -1376 -32
WIRE -1376 0 -1632 0
WIRE -1632 48 -1632 0
WIRE -1712 112 -1856 112
WIRE -1536 112 -1648 112
WIRE -1168 112 -1168 -32
WIRE -1168 112 -1424 112
WIRE -1856 208 -1856 112
WIRE -1856 224 -1856 208
WIRE -1424 224 -1424 192
WIRE -1088 224 -1088 -32
WIRE -1088 224 -1424 224
WIRE -1536 256 -1536 192
FLAG -1152 -384 0
FLAG -1232 -384 0
FLAG -1232 -464 -Vcc
IOPIN -1232 -464 In
FLAG -1152 -464 Vcc
IOPIN -1152 -464 In
FLAG -1632 48 0
FLAG -1568 -304 0
FLAG -1760 -416 VCC+5V
IOPIN -1760 -416 In
FLAG -1856 304 0
FLAG -1856 208 Vin
FLAG -1536 256 0
FLAG -400 -144 0
FLAG -512 -144 0
SYMBOL voltage -1632 -160 R0
WINDOW 39 0 0 Left 0
WINDOW 0 48 22 Left 0
WINDOW 3 -103 133 Left 0
SYMATTR InstName V2
SYMATTR Value SINE(0 0.2 3.3Meg)
SYMATTR Value2 AC 1e-6
SYMBOL ne612\\sa612 -1264 -192 R0
SYMATTR InstName X1
SYMBOL cap -1648 -176 M180
WINDOW 0 24 56 Left 2
WINDOW 3 24 8 Left 2
SYMATTR InstName C1
SYMATTR Value 100n
SYMBOL voltage -1152 -480 R0
WINDOW 123 0 0 Left 0
WINDOW 39 0 0 Left 0
SYMATTR InstName V4
SYMATTR Value 12v
SYMBOL voltage -1232 -368 R180
WINDOW 0 24 96 Left 2
WINDOW 3 24 16 Left 2
WINDOW 123 0 0 Left 0
WINDOW 39 0 0 Left 0
SYMATTR InstName V5
SYMATTR Value 12v
SYMBOL voltage -1568 -400 R0
WINDOW 123 0 0 Left 0
WINDOW 39 0 0 Left 0
SYMATTR InstName V3
SYMATTR Value 5v
SYMBOL cap -1648 96 R90
WINDOW 0 0 32 VBottom 2
WINDOW 3 32 32 VTop 2
SYMATTR InstName C2
SYMATTR Value 100n
SYMBOL voltage -1856 208 R0
WINDOW 39 24 44 Left 2
WINDOW 3 24 72 Left 2
SYMATTR Value SINE(0 0.1u 14Meg)
SYMATTR Value2 AC 10u
SYMATTR InstName V1
SYMBOL ind2 -1552 96 R0
SYMATTR InstName L1
SYMATTR Value 4µ
SYMATTR Type ind
SYMBOL ind2 -1408 208 R180
WINDOW 0 36 80 Left 2
WINDOW 3 36 40 Left 2
SYMATTR InstName L2
SYMATTR Value 144µ
SYMATTR Type ind
SYMBOL ind2 -640 -240 R0
SYMATTR InstName L3
SYMATTR Value 30µ
SYMATTR Type ind
SYMBOL ind2 -496 -128 R180
WINDOW 0 36 80 Left 2
WINDOW 3 36 40 Left 2
SYMATTR InstName L4
SYMATTR Value 30µ
SYMATTR Type ind
SYMBOL res -416 -240 R0
SYMATTR InstName R1
SYMATTR Value 1.5k
TEXT -1184 -352 Left 0 ;1st Mixer
TEXT -1592 -112 Left 0 ;1st LO
TEXT -2912 528 Left 2 !.tran 0 10u 4u
TEXT -1552 88 Left 2 !K1 L1 L2 0.95
TEXT -640 -248 Left 2 !K2 L3 L4 0.95
