Version 4
SHEET 1 2900 680
WIRE -976 -912 -1184 -912
WIRE -848 -912 -976 -912
WIRE -1184 -896 -1184 -912
WIRE -848 -880 -848 -912
WIRE -1184 -768 -1184 -816
WIRE -976 -672 -976 -912
WIRE -1248 -624 -1584 -624
WIRE -848 -592 -848 -800
WIRE -576 -592 -784 -592
WIRE -256 -592 -416 -592
WIRE -176 -592 -256 -592
WIRE -16 -592 -96 -592
WIRE 48 -592 -16 -592
WIRE 160 -592 128 -592
WIRE 224 -592 160 -592
WIRE 352 -592 304 -592
WIRE 416 -592 352 -592
WIRE 544 -592 496 -592
WIRE 656 -592 544 -592
WIRE -16 -544 -16 -592
WIRE 160 -544 160 -592
WIRE 352 -544 352 -592
WIRE 544 -544 544 -592
WIRE -848 -528 -848 -592
WIRE -576 -496 -576 -512
WIRE -496 -496 -576 -496
WIRE -416 -496 -416 -512
WIRE -416 -496 -496 -496
WIRE -1584 -480 -1584 -624
WIRE -1248 -480 -1248 -624
WIRE -1152 -480 -1248 -480
WIRE -976 -480 -976 -592
WIRE -976 -480 -1088 -480
WIRE -912 -480 -976 -480
WIRE -496 -480 -496 -496
WIRE -1584 -464 -1584 -480
WIRE -976 -432 -976 -480
WIRE 656 -432 656 -592
WIRE 656 -432 -640 -432
WIRE -848 -416 -848 -432
WIRE -736 -416 -848 -416
WIRE -848 -400 -848 -416
WIRE -736 -384 -736 -416
WIRE -240 -352 -288 -352
WIRE -96 -352 -160 -352
WIRE -16 -352 -96 -352
WIRE 128 -336 48 -336
WIRE -976 -320 -976 -352
WIRE -288 -288 -288 -352
WIRE -16 -272 -16 -352
WIRE 128 -272 128 -336
WIRE 176 -192 128 -192
WIRE 272 -192 240 -192
WIRE 336 -192 272 -192
WIRE 496 -192 416 -192
WIRE 560 -192 496 -192
WIRE 672 -192 640 -192
WIRE 736 -192 672 -192
WIRE 864 -192 816 -192
WIRE 928 -192 864 -192
WIRE 1056 -192 1008 -192
WIRE 1344 -192 1056 -192
WIRE -496 -160 -560 -160
WIRE -272 -160 -416 -160
WIRE -16 -160 -16 -192
WIRE 48 -160 48 -336
WIRE 48 -160 -16 -160
WIRE -272 -144 -272 -160
WIRE 272 -144 272 -192
WIRE 496 -144 496 -192
WIRE 672 -144 672 -192
WIRE 864 -144 864 -192
WIRE 1056 -144 1056 -192
WIRE -560 -112 -560 -160
WIRE -16 -112 -16 -160
WIRE 1344 -64 1344 -112
WIRE -640 -32 -640 -432
WIRE -624 -32 -640 -32
WIRE -400 -32 -480 -32
WIRE -272 -32 -272 -64
WIRE -272 -32 -336 -32
WIRE -64 -32 -272 -32
WIRE -624 64 -624 48
WIRE -560 64 -624 64
WIRE -480 64 -480 48
WIRE -480 64 -560 64
WIRE -16 64 -16 -16
WIRE -560 80 -560 64
FLAG -16 64 0
FLAG -560 -112 0
FLAG -288 -288 0
FLAG -560 80 0
FLAG 1344 -64 0
FLAG 272 -80 0
FLAG 496 -80 0
FLAG 672 -80 0
FLAG 864 -80 0
FLAG 1056 -80 0
FLAG -848 -320 0
FLAG -1584 -384 0
FLAG -1584 -480 Vin
FLAG -16 -480 0
FLAG 160 -480 0
FLAG 352 -480 0
FLAG 544 -480 0
FLAG -736 -320 0
FLAG -96 -352 Vcc
IOPIN -96 -352 In
FLAG -496 -480 0
FLAG -976 -320 0
FLAG -256 -528 0
FLAG -1184 -768 0
SYMBOL nmos -64 -112 R0
SYMATTR InstName M1
SYMATTR Value IRF530
SYMBOL cap -336 -48 R90
WINDOW 0 0 32 VBottom 2
WINDOW 3 32 32 VTop 2
SYMATTR InstName C1
SYMATTR Value 100n
SYMBOL res -288 -160 R0
SYMATTR InstName R1
SYMATTR Value 10k
SYMBOL voltage -400 -160 R90
WINDOW 0 -32 56 VBottom 2
WINDOW 3 32 56 VTop 2
WINDOW 123 0 0 Left 0
WINDOW 39 0 0 Left 0
SYMATTR InstName V1
SYMATTR Value 4.15V
SYMBOL ind2 -32 -288 R0
SYMATTR InstName L1
SYMATTR Value 1µ
SYMATTR Type ind
SYMBOL voltage -144 -352 R90
WINDOW 0 -32 56 VBottom 2
WINDOW 3 32 56 VTop 2
WINDOW 123 0 0 Left 0
WINDOW 39 0 0 Left 0
SYMATTR InstName V3
SYMATTR Value 12v
SYMBOL ind2 144 -176 R180
WINDOW 0 36 80 Left 2
WINDOW 3 36 40 Left 2
SYMATTR InstName L2
SYMATTR Value 9µ
SYMATTR Type ind
SYMBOL cap 240 -208 R90
WINDOW 0 0 32 VBottom 2
WINDOW 3 32 32 VTop 2
SYMATTR InstName C2
SYMATTR Value 100n
SYMBOL ind2 -640 -48 R0
SYMATTR InstName L3
SYMATTR Value 90µ
SYMATTR Type ind
SYMATTR SpiceLine Rser=0.1r
SYMBOL ind2 -464 64 R180
WINDOW 0 36 80 Left 2
WINDOW 3 36 40 Left 2
SYMATTR InstName L4
SYMATTR Value 10µ
SYMATTR Type ind
SYMBOL res 1328 -208 R0
SYMATTR InstName R2
SYMATTR Value 50R
SYMBOL ind 320 -176 R270
WINDOW 0 32 56 VTop 2
WINDOW 3 5 56 VBottom 2
SYMATTR InstName L5
SYMATTR Value 680n
SYMBOL cap 256 -144 R0
SYMATTR InstName C3
SYMATTR Value 180p
SYMBOL ind 544 -176 R270
WINDOW 0 32 56 VTop 2
WINDOW 3 5 56 VBottom 2
SYMATTR InstName L6
SYMATTR Value 820n
SYMBOL cap 480 -144 R0
SYMATTR InstName C4
SYMATTR Value 390p
SYMBOL ind 720 -176 R270
WINDOW 0 32 56 VTop 2
WINDOW 3 5 56 VBottom 2
SYMATTR InstName L7
SYMATTR Value 820n
SYMBOL cap 656 -144 R0
SYMATTR InstName C5
SYMATTR Value 390p
SYMBOL ind 912 -176 R270
WINDOW 0 32 56 VTop 2
WINDOW 3 5 56 VBottom 2
SYMATTR InstName L8
SYMATTR Value 680n
SYMBOL cap 848 -144 R0
SYMATTR InstName C6
SYMATTR Value 390p
SYMBOL cap 1040 -144 R0
SYMATTR InstName C7
SYMATTR Value 180p
SYMBOL cap -1088 -496 R90
WINDOW 0 0 32 VBottom 2
WINDOW 3 32 32 VTop 2
SYMATTR InstName C8
SYMATTR Value 100n
SYMBOL npn -912 -528 R0
SYMATTR InstName Q1
SYMATTR Value 2N3904
SYMBOL res -864 -896 R0
SYMATTR InstName R4
SYMATTR Value 200R
SYMBOL cap -784 -608 R90
WINDOW 0 0 32 VBottom 2
WINDOW 3 32 32 VTop 2
SYMATTR InstName C9
SYMATTR Value 100n
SYMBOL res -864 -416 R0
SYMATTR InstName R5
SYMATTR Value 150r
SYMBOL cap -752 -384 R0
SYMATTR InstName C10
SYMATTR Value 22µ
SYMBOL voltage -1584 -480 R0
WINDOW 123 24 124 Left 2
WINDOW 39 24 44 Left 2
WINDOW 3 24 72 Left 2
SYMATTR Value2 AC 10u
SYMATTR SpiceLine Rser=50
SYMATTR Value SINE(0 0.5 14Meg)
SYMATTR InstName V5
SYMBOL ind -192 -576 R270
WINDOW 0 32 56 VTop 2
WINDOW 3 5 56 VBottom 2
SYMATTR InstName L11
SYMATTR Value 680n
SYMBOL ind 32 -576 R270
WINDOW 0 32 56 VTop 2
WINDOW 3 5 56 VBottom 2
SYMATTR InstName L12
SYMATTR Value 820n
SYMBOL cap -32 -544 R0
SYMATTR InstName C12
SYMATTR Value 390p
SYMBOL ind 208 -576 R270
WINDOW 0 32 56 VTop 2
WINDOW 3 5 56 VBottom 2
SYMATTR InstName L13
SYMATTR Value 820n
SYMBOL cap 144 -544 R0
SYMATTR InstName C13
SYMATTR Value 390p
SYMBOL ind 400 -576 R270
WINDOW 0 32 56 VTop 2
WINDOW 3 5 56 VBottom 2
SYMATTR InstName L14
SYMATTR Value 680n
SYMBOL cap 336 -544 R0
SYMATTR InstName C14
SYMATTR Value 390p
SYMBOL cap 528 -544 R0
SYMATTR InstName C15
SYMATTR Value 180p
SYMBOL ind2 -592 -608 R0
SYMATTR InstName L15
SYMATTR Value 40µ
SYMATTR Type ind
SYMBOL ind2 -400 -496 R180
WINDOW 0 36 80 Left 2
WINDOW 3 36 40 Left 2
SYMATTR InstName L16
SYMATTR Value 10µ
SYMATTR Type ind
SYMBOL res -992 -688 R0
SYMATTR InstName R3
SYMATTR Value 22k
SYMBOL res -992 -448 R0
SYMATTR InstName R7
SYMATTR Value 10k
SYMBOL cap -272 -592 R0
SYMATTR InstName C11
SYMATTR Value 180p
SYMBOL voltage -1184 -912 R0
WINDOW 123 0 0 Left 0
WINDOW 39 0 0 Left 0
SYMATTR InstName V2
SYMATTR Value 12v
TEXT 0 -296 Left 2 !K1 L1 L2 1
TEXT -616 -56 Left 2 !K2 L3 L4 1
TEXT -568 232 Left 2 !.tran 0 22u 20u
TEXT -568 -616 Left 2 !K5 L15 L16 1
