Version 4
SHEET 1 1284 680
WIRE 0 -288 0 -352
WIRE -640 -32 -736 -32
WIRE -400 -32 -512 -32
WIRE -80 0 -128 0
WIRE 0 0 0 -208
WIRE 96 0 64 0
WIRE 160 0 96 0
WIRE 320 0 240 0
WIRE 384 0 320 0
WIRE 496 0 464 0
WIRE 560 0 496 0
WIRE 688 0 640 0
WIRE 752 0 688 0
WIRE 880 0 832 0
WIRE 1168 0 880 0
WIRE 96 48 96 0
WIRE 320 48 320 0
WIRE 496 48 496 0
WIRE 688 48 688 0
WIRE 880 48 880 0
WIRE -640 64 -640 48
WIRE -576 64 -640 64
WIRE -512 64 -512 48
WIRE -512 64 -576 64
WIRE 0 64 0 0
WIRE -576 80 -576 64
WIRE -736 112 -736 -32
WIRE -400 112 -400 -32
WIRE -304 112 -400 112
WIRE -128 112 -128 0
WIRE -128 112 -240 112
WIRE -64 112 -128 112
WIRE -736 128 -736 112
WIRE 1168 128 1168 80
WIRE 0 176 0 160
WIRE 112 176 0 176
WIRE 0 192 0 176
WIRE 112 208 112 176
WIRE 112 432 112 272
FLAG 0 -352 Vcc
IOPIN 0 -352 In
FLAG 0 272 0
FLAG -256 -32 0
FLAG -256 -112 Vcc
IOPIN -256 -112 In
FLAG 112 432 0
FLAG -736 208 0
FLAG -736 112 Vin
FLAG -576 80 0
FLAG 1168 128 0
FLAG 96 112 0
FLAG 320 112 0
FLAG 496 112 0
FLAG 688 112 0
FLAG 880 112 0
SYMBOL cap -240 96 R90
WINDOW 0 0 32 VBottom 2
WINDOW 3 32 32 VTop 2
SYMATTR InstName C1
SYMATTR Value 100n
SYMBOL npn -64 64 R0
SYMATTR InstName Q1
SYMATTR Value 2N3904
SYMBOL res 16 -16 R90
WINDOW 0 0 56 VBottom 2
WINDOW 3 32 56 VTop 2
SYMATTR InstName R1
SYMATTR Value 2k2
SYMBOL res -16 -304 R0
SYMATTR InstName R2
SYMATTR Value 200R
SYMBOL cap 64 -16 R90
WINDOW 0 0 32 VBottom 2
WINDOW 3 32 32 VTop 2
SYMATTR InstName C2
SYMATTR Value 100n
SYMBOL res -16 176 R0
SYMATTR InstName R3
SYMATTR Value 150r
SYMBOL cap 96 208 R0
SYMATTR InstName C3
SYMATTR Value 10µ
SYMBOL voltage -256 -128 R0
WINDOW 123 0 0 Left 0
WINDOW 39 0 0 Left 0
SYMATTR InstName V1
SYMATTR Value 12v
SYMBOL voltage -736 112 R0
WINDOW 123 24 124 Left 2
WINDOW 39 24 44 Left 2
WINDOW 3 24 72 Left 2
SYMATTR Value2 AC 10u
SYMATTR SpiceLine Rser=50
SYMATTR InstName V2
SYMATTR Value SINE(0 100m 14Meg)
SYMBOL ind2 -656 -48 R0
WINDOW 3 -13 42 VRight 2
SYMATTR InstName L1
SYMATTR Value 22.5µ
SYMATTR Type ind
SYMBOL ind2 -496 64 R180
WINDOW 0 41 73 Left 2
WINDOW 3 -6 27 VRight 2
SYMATTR InstName L2
SYMATTR Value 10µ
SYMATTR Type ind
SYMBOL res 1152 -16 R0
SYMATTR InstName R5
SYMATTR Value 50R
SYMBOL ind 144 16 R270
WINDOW 0 32 56 VTop 2
WINDOW 3 5 56 VBottom 2
SYMATTR InstName L3
SYMATTR Value 680n
SYMBOL cap 80 48 R0
SYMATTR InstName C4
SYMATTR Value 180p
SYMBOL ind 368 16 R270
WINDOW 0 32 56 VTop 2
WINDOW 3 5 56 VBottom 2
SYMATTR InstName L4
SYMATTR Value 820n
SYMBOL cap 304 48 R0
SYMATTR InstName C5
SYMATTR Value 390p
SYMBOL ind 544 16 R270
WINDOW 0 32 56 VTop 2
WINDOW 3 5 56 VBottom 2
SYMATTR InstName L5
SYMATTR Value 820n
SYMBOL cap 480 48 R0
SYMATTR InstName C6
SYMATTR Value 390p
SYMBOL ind 736 16 R270
WINDOW 0 32 56 VTop 2
WINDOW 3 5 56 VBottom 2
SYMATTR InstName L6
SYMATTR Value 680n
SYMBOL cap 672 48 R0
SYMATTR InstName C7
SYMATTR Value 390p
SYMBOL cap 864 48 R0
SYMATTR InstName C8
SYMATTR Value 180p
TEXT -568 264 Left 2 !;.ac lin 999999 3Meg 30Meg
TEXT -568 232 Left 2 !.tran 0 22u 20u
TEXT -648 -72 Left 2 !K1 L1 L2 1
